matpower/matpower-converter/src/test/resources/ieee300.xiidm
<?xml version="1.0" encoding="UTF-8"?>
<iidm:network xmlns:iidm="http://www.powsybl.org/schema/iidm/1_17" xmlns:slt="http://www.powsybl.org/schema/iidm/ext/slack_terminal/1_5" id="ieee300" caseDate="2020-01-01T00:00:00.000Z" forecastDistance="0" sourceFormat="MATPOWER" minimumValidationLevel="STEADY_STATE_HYPOTHESIS">
    <iidm:substation id="SUB-1">
        <iidm:voltageLevel id="VL-1" nominalV="1.0" lowVoltageLimit="0.94" highVoltageLimit="1.06" topologyKind="BUS_BREAKER">
            <iidm:busBreakerTopology>
                <iidm:bus id="BUS-1" v="1.0284" angle="5.95"/>
                <iidm:bus id="BUS-2" v="1.0354" angle="7.74"/>
                <iidm:bus id="BUS-3" v="0.9971" angle="6.64"/>
                <iidm:bus id="BUS-4" v="1.0308" angle="4.71"/>
                <iidm:bus id="BUS-7001" v="1.0507" angle="10.79"/>
                <iidm:bus id="BUS-7002" v="1.0507" angle="12.48"/>
                <iidm:bus id="BUS-7003" v="1.0323" angle="13.76"/>
            </iidm:busBreakerTopology>
            <iidm:generator id="GEN-7001" energySource="OTHER" minP="0.0" maxP="567.0" ratedS="100.0" targetP="467.0" localTargetV="1.0507" localTargetQ="0.0" bus="BUS-7001" connectableBus="BUS-7001">
                <iidm:minMaxReactiveLimits minQ="-210.0" maxQ="210.0"/>
                <iidm:voltageRegulation mode="VOLTAGE" regulating="true"/>
            </iidm:generator>
            <iidm:generator id="GEN-7002" energySource="OTHER" minP="0.0" maxP="723.0" ratedS="100.0" targetP="623.0" localTargetV="1.0507" localTargetQ="0.0" bus="BUS-7002" connectableBus="BUS-7002">
                <iidm:minMaxReactiveLimits minQ="-280.0" maxQ="280.0"/>
                <iidm:voltageRegulation mode="VOLTAGE" regulating="true"/>
            </iidm:generator>
            <iidm:generator id="GEN-7003" energySource="OTHER" minP="0.0" maxP="1310.0" ratedS="100.0" targetP="1210.0" localTargetV="1.0323" localTargetQ="0.0" bus="BUS-7003" connectableBus="BUS-7003">
                <iidm:minMaxReactiveLimits minQ="-420.0" maxQ="420.0"/>
                <iidm:voltageRegulation mode="VOLTAGE" regulating="true"/>
            </iidm:generator>
            <iidm:load id="LOAD-1" loadType="UNDEFINED" p0="90.0" q0="49.0" bus="BUS-1" connectableBus="BUS-1"/>
            <iidm:load id="LOAD-2" loadType="UNDEFINED" p0="56.0" q0="15.0" bus="BUS-2" connectableBus="BUS-2"/>
            <iidm:load id="LOAD-3" loadType="UNDEFINED" p0="20.0" q0="0.0" bus="BUS-3" connectableBus="BUS-3"/>
        </iidm:voltageLevel>
        <iidm:twoWindingsTransformer id="TWT-3-1" r="0.0" x="5.2E-4" ratedU1="0.947" ratedU2="1.0" voltageLevelId1="VL-1" bus1="BUS-3" connectableBus1="BUS-3" voltageLevelId2="VL-1" bus2="BUS-1" connectableBus2="BUS-1"/>
        <iidm:twoWindingsTransformer id="TWT-7001-1" r="0.0" x="1.953E-4" ratedU1="1.0" ratedU2="1.0" voltageLevelId1="VL-1" bus1="BUS-7001" connectableBus1="BUS-7001" voltageLevelId2="VL-1" bus2="BUS-1" connectableBus2="BUS-1"/>
        <iidm:twoWindingsTransformer id="TWT-3-2" r="0.0" x="5.2E-4" ratedU1="0.956" ratedU2="1.0" voltageLevelId1="VL-1" bus1="BUS-3" connectableBus1="BUS-3" voltageLevelId2="VL-1" bus2="BUS-2" connectableBus2="BUS-2"/>
        <iidm:twoWindingsTransformer id="TWT-7002-2" r="1.0E-5" x="1.46E-4" ratedU1="1.0" ratedU2="1.0" voltageLevelId1="VL-1" bus1="BUS-7002" connectableBus1="BUS-7002" voltageLevelId2="VL-1" bus2="BUS-2" connectableBus2="BUS-2"/>
        <iidm:twoWindingsTransformer id="TWT-3-4" r="0.0" x="5.0E-5" ratedU1="0.971" ratedU2="1.0" voltageLevelId1="VL-1" bus1="BUS-3" connectableBus1="BUS-3" voltageLevelId2="VL-1" bus2="BUS-4" connectableBus2="BUS-4"/>
        <iidm:twoWindingsTransformer id="TWT-7003-3" r="0.0" x="1.0540000000000001E-4" ratedU1="1.0" ratedU2="1.0" voltageLevelId1="VL-1" bus1="BUS-7003" connectableBus1="BUS-7003" voltageLevelId2="VL-1" bus2="BUS-3" connectableBus2="BUS-3"/>
    </iidm:substation>
    <iidm:substation id="SUB-5">
        <iidm:voltageLevel id="VL-5" nominalV="1.0" lowVoltageLimit="0.94" highVoltageLimit="1.06" topologyKind="BUS_BREAKER">
            <iidm:busBreakerTopology>
                <iidm:bus id="BUS-5" v="1.0191" angle="4.68"/>
                <iidm:bus id="BUS-6" v="1.0312" angle="6.99"/>
                <iidm:bus id="BUS-7" v="0.9934" angle="6.19"/>
            </iidm:busBreakerTopology>
            <iidm:load id="LOAD-5" loadType="UNDEFINED" p0="353.0" q0="130.0" bus="BUS-5" connectableBus="BUS-5"/>
            <iidm:load id="LOAD-6" loadType="UNDEFINED" p0="120.0" q0="41.0" bus="BUS-6" connectableBus="BUS-6"/>
        </iidm:voltageLevel>
        <iidm:twoWindingsTransformer id="TWT-7-5" r="0.0" x="3.9E-4" ratedU1="0.948" ratedU2="1.0" voltageLevelId1="VL-5" bus1="BUS-7" connectableBus1="BUS-7" voltageLevelId2="VL-5" bus2="BUS-5" connectableBus2="BUS-5"/>
        <iidm:twoWindingsTransformer id="TWT-7-6" r="0.0" x="3.9E-4" ratedU1="0.959" ratedU2="1.0" voltageLevelId1="VL-5" bus1="BUS-7" connectableBus1="BUS-7" voltageLevelId2="VL-5" bus2="BUS-6" connectableBus2="BUS-6"/>
    </iidm:substation>
    <iidm:substation id="SUB-8">
        <iidm:voltageLevel id="VL-8" nominalV="1.0" lowVoltageLimit="0.94" highVoltageLimit="1.06" topologyKind="BUS_BREAKER">
            <iidm:busBreakerTopology>
                <iidm:bus id="BUS-8" v="1.0153" angle="2.4"/>
            </iidm:busBreakerTopology>
            <iidm:generator id="GEN-8" energySource="OTHER" minP="0.0" maxP="100.0" ratedS="100.0" targetP="0.0" localTargetV="1.0153" localTargetQ="0.0" bus="BUS-8" connectableBus="BUS-8">
                <iidm:minMaxReactiveLimits minQ="-10.0" maxQ="10.0"/>
                <iidm:voltageRegulation mode="VOLTAGE" regulating="true"/>
            </iidm:generator>
            <iidm:load id="LOAD-8" loadType="UNDEFINED" p0="63.0" q0="14.0" bus="BUS-8" connectableBus="BUS-8"/>
        </iidm:voltageLevel>
    </iidm:substation>
    <iidm:substation id="SUB-9">
        <iidm:voltageLevel id="VL-9" nominalV="1.0" lowVoltageLimit="0.94" highVoltageLimit="1.06" topologyKind="BUS_BREAKER">
            <iidm:busBreakerTopology>
                <iidm:bus id="BUS-9" v="1.0034" angle="2.85"/>
            </iidm:busBreakerTopology>
            <iidm:load id="LOAD-9" loadType="UNDEFINED" p0="96.0" q0="43.0" bus="BUS-9" connectableBus="BUS-9"/>
        </iidm:voltageLevel>
    </iidm:substation>
    <iidm:substation id="SUB-10">
        <iidm:voltageLevel id="VL-10" nominalV="1.0" lowVoltageLimit="0.94" highVoltageLimit="1.06" topologyKind="BUS_BREAKER">
            <iidm:busBreakerTopology>
                <iidm:bus id="BUS-10" v="1.0205" angle="1.35"/>
                <iidm:bus id="BUS-11" v="1.0057" angle="2.46"/>
                <iidm:bus id="BUS-12" v="0.9974" angle="5.21"/>
                <iidm:bus id="BUS-7011" v="1.0145" angle="4.99"/>
                <iidm:bus id="BUS-7012" v="1.0507" angle="11.57"/>
            </iidm:busBreakerTopology>
            <iidm:generator id="GEN-10" energySource="OTHER" minP="0.0" maxP="100.0" ratedS="100.0" targetP="0.0" localTargetV="1.0205" localTargetQ="0.0" bus="BUS-10" connectableBus="BUS-10">
                <iidm:minMaxReactiveLimits minQ="-20.0" maxQ="20.0"/>
                <iidm:voltageRegulation mode="VOLTAGE" regulating="true"/>
            </iidm:generator>
            <iidm:generator id="GEN-7011" energySource="OTHER" minP="0.0" maxP="334.0" ratedS="100.0" targetP="234.0" localTargetV="1.0145" localTargetQ="0.0" bus="BUS-7011" connectableBus="BUS-7011">
                <iidm:minMaxReactiveLimits minQ="-100.0" maxQ="100.0"/>
                <iidm:voltageRegulation mode="VOLTAGE" regulating="true"/>
            </iidm:generator>
            <iidm:generator id="GEN-7012" energySource="OTHER" minP="0.0" maxP="472.0" ratedS="100.0" targetP="372.0" localTargetV="1.0507" localTargetQ="0.0" bus="BUS-7012" connectableBus="BUS-7012">
                <iidm:minMaxReactiveLimits minQ="-224.0" maxQ="224.0"/>
                <iidm:voltageRegulation mode="VOLTAGE" regulating="true"/>
            </iidm:generator>
            <iidm:load id="LOAD-10" loadType="UNDEFINED" p0="153.0" q0="33.0" bus="BUS-10" connectableBus="BUS-10"/>
            <iidm:load id="LOAD-11" loadType="UNDEFINED" p0="83.0" q0="21.0" bus="BUS-11" connectableBus="BUS-11"/>
        </iidm:voltageLevel>
        <iidm:twoWindingsTransformer id="TWT-10-11" r="0.0" x="8.9E-4" ratedU1="1.046" ratedU2="1.0" voltageLevelId1="VL-10" bus1="BUS-10" connectableBus1="BUS-10" voltageLevelId2="VL-10" bus2="BUS-11" connectableBus2="BUS-11"/>
        <iidm:twoWindingsTransformer id="TWT-12-10" r="0.0" x="5.3E-4" ratedU1="0.985" ratedU2="1.0" voltageLevelId1="VL-10" bus1="BUS-12" connectableBus1="BUS-12" voltageLevelId2="VL-10" bus2="BUS-10" connectableBus2="BUS-10"/>
        <iidm:twoWindingsTransformer id="TWT-7011-11" r="0.0" x="1.923E-4" ratedU1="1.0" ratedU2="1.0" voltageLevelId1="VL-10" bus1="BUS-7011" connectableBus1="BUS-7011" voltageLevelId2="VL-10" bus2="BUS-11" connectableBus2="BUS-11"/>
        <iidm:twoWindingsTransformer id="TWT-7012-12" r="0.0" x="3.12E-4" ratedU1="1.0" ratedU2="1.0" voltageLevelId1="VL-10" bus1="BUS-7012" connectableBus1="BUS-7012" voltageLevelId2="VL-10" bus2="BUS-12" connectableBus2="BUS-12"/>
    </iidm:substation>
    <iidm:substation id="SUB-13">
        <iidm:voltageLevel id="VL-13" nominalV="1.0" lowVoltageLimit="0.94" highVoltageLimit="1.06" topologyKind="BUS_BREAKER">
            <iidm:busBreakerTopology>
                <iidm:bus id="BUS-13" v="0.9977" angle="-0.55"/>
            </iidm:busBreakerTopology>
            <iidm:load id="LOAD-13" loadType="UNDEFINED" p0="58.0" q0="10.0" bus="BUS-13" connectableBus="BUS-13"/>
        </iidm:voltageLevel>
    </iidm:substation>
    <iidm:substation id="SUB-14">
        <iidm:voltageLevel id="VL-14" nominalV="1.0" lowVoltageLimit="0.94" highVoltageLimit="1.06" topologyKind="BUS_BREAKER">
            <iidm:busBreakerTopology>
                <iidm:bus id="BUS-14" v="0.9991" angle="-4.81"/>
            </iidm:busBreakerTopology>
            <iidm:load id="LOAD-14" loadType="UNDEFINED" p0="160.0" q0="60.0" bus="BUS-14" connectableBus="BUS-14"/>
        </iidm:voltageLevel>
    </iidm:substation>
    <iidm:substation id="SUB-15">
        <iidm:voltageLevel id="VL-15" nominalV="1.0" lowVoltageLimit="0.94" highVoltageLimit="1.06" topologyKind="BUS_BREAKER">
            <iidm:busBreakerTopology>
                <iidm:bus id="BUS-15" v="1.0343" angle="-8.59"/>
                <iidm:bus id="BUS-16" v="1.0315" angle="-2.65"/>
                <iidm:bus id="BUS-17" v="1.0649" angle="-13.1"/>
                <iidm:bus id="BUS-7017" v="1.0507" angle="-10.47"/>
            </iidm:busBreakerTopology>
            <iidm:generator id="GEN-7017" energySource="OTHER" minP="0.0" maxP="430.0" ratedS="100.0" targetP="330.0" localTargetV="1.0507" localTargetQ="0.0" bus="BUS-7017" connectableBus="BUS-7017">
                <iidm:minMaxReactiveLimits minQ="0.0" maxQ="350.0"/>
                <iidm:voltageRegulation mode="VOLTAGE" regulating="true"/>
            </iidm:generator>
            <iidm:load id="LOAD-15" loadType="UNDEFINED" p0="126.7" q0="23.0" bus="BUS-15" connectableBus="BUS-15"/>
            <iidm:load id="LOAD-17" loadType="UNDEFINED" p0="561.0" q0="220.0" bus="BUS-17" connectableBus="BUS-17"/>
        </iidm:voltageLevel>
        <iidm:twoWindingsTransformer id="TWT-15-17" r="1.94E-4" x="3.11E-4" ratedU1="0.9561" ratedU2="1.0" voltageLevelId1="VL-15" bus1="BUS-15" connectableBus1="BUS-15" voltageLevelId2="VL-15" bus2="BUS-17" connectableBus2="BUS-17"/>
        <iidm:twoWindingsTransformer id="TWT-16-15" r="1.0E-5" x="3.8E-4" ratedU1="0.971" ratedU2="1.0" voltageLevelId1="VL-15" bus1="BUS-16" connectableBus1="BUS-16" voltageLevelId2="VL-15" bus2="BUS-15" connectableBus2="BUS-15"/>
        <iidm:twoWindingsTransformer id="TWT-7017-17" r="0.0" x="1.6539999999999998E-4" ratedU1="0.942" ratedU2="1.0" voltageLevelId1="VL-15" bus1="BUS-7017" connectableBus1="BUS-7017" voltageLevelId2="VL-15" bus2="BUS-17" connectableBus2="BUS-17"/>
    </iidm:substation>
    <iidm:substation id="SUB-19">
        <iidm:voltageLevel id="VL-19" nominalV="1.0" lowVoltageLimit="0.94" highVoltageLimit="1.06" topologyKind="BUS_BREAKER">
            <iidm:busBreakerTopology>
                <iidm:bus id="BUS-19" v="0.982" angle="1.08"/>
            </iidm:busBreakerTopology>
        </iidm:voltageLevel>
    </iidm:substation>
    <iidm:substation id="SUB-20">
        <iidm:voltageLevel id="VL-20" nominalV="1.0" lowVoltageLimit="0.94" highVoltageLimit="1.06" topologyKind="BUS_BREAKER">
            <iidm:busBreakerTopology>
                <iidm:bus id="BUS-20" v="1.001" angle="-2.46"/>
                <iidm:bus id="BUS-21" v="0.9752" angle="1.62"/>
            </iidm:busBreakerTopology>
            <iidm:generator id="GEN-20" energySource="OTHER" minP="0.0" maxP="100.0" ratedS="100.0" targetP="0.0" localTargetV="1.001" localTargetQ="0.0" bus="BUS-20" connectableBus="BUS-20">
                <iidm:minMaxReactiveLimits minQ="-20.0" maxQ="20.0"/>
                <iidm:voltageRegulation mode="VOLTAGE" regulating="true"/>
            </iidm:generator>
            <iidm:load id="LOAD-20" loadType="UNDEFINED" p0="605.0" q0="120.0" bus="BUS-20" connectableBus="BUS-20"/>
            <iidm:load id="LOAD-21" loadType="UNDEFINED" p0="77.0" q0="1.0" bus="BUS-21" connectableBus="BUS-21"/>
        </iidm:voltageLevel>
        <iidm:twoWindingsTransformer id="TWT-21-20" r="0.0" x="1.4000000000000001E-4" ratedU1="0.952" ratedU2="1.0" voltageLevelId1="VL-20" bus1="BUS-21" connectableBus1="BUS-21" voltageLevelId2="VL-20" bus2="BUS-20" connectableBus2="BUS-20"/>
    </iidm:substation>
    <iidm:substation id="SUB-22">
        <iidm:voltageLevel id="VL-22" nominalV="1.0" lowVoltageLimit="0.94" highVoltageLimit="1.06" topologyKind="BUS_BREAKER">
            <iidm:busBreakerTopology>
                <iidm:bus id="BUS-22" v="0.9963" angle="-1.97"/>
            </iidm:busBreakerTopology>
            <iidm:load id="LOAD-22" loadType="UNDEFINED" p0="81.0" q0="23.0" bus="BUS-22" connectableBus="BUS-22"/>
        </iidm:voltageLevel>
    </iidm:substation>
    <iidm:substation id="SUB-23">
        <iidm:voltageLevel id="VL-23" nominalV="1.0" lowVoltageLimit="0.94" highVoltageLimit="1.06" topologyKind="BUS_BREAKER">
            <iidm:busBreakerTopology>
                <iidm:bus id="BUS-23" v="1.0501" angle="3.94"/>
                <iidm:bus id="BUS-24" v="1.0057" angle="6.02"/>
                <iidm:bus id="BUS-7023" v="1.0507" angle="6.15"/>
                <iidm:bus id="BUS-7024" v="1.029" angle="12.6"/>
            </iidm:busBreakerTopology>
            <iidm:generator id="GEN-7023" energySource="OTHER" minP="0.0" maxP="285.0" ratedS="100.0" targetP="185.0" localTargetV="1.0507" localTargetQ="0.0" bus="BUS-7023" connectableBus="BUS-7023">
                <iidm:minMaxReactiveLimits minQ="0.0" maxQ="120.0"/>
                <iidm:voltageRegulation mode="VOLTAGE" regulating="true"/>
            </iidm:generator>
            <iidm:generator id="GEN-7024" energySource="OTHER" minP="0.0" maxP="510.0" ratedS="100.0" targetP="410.0" localTargetV="1.029" localTargetQ="0.0" bus="BUS-7024" connectableBus="BUS-7024">
                <iidm:minMaxReactiveLimits minQ="-224.0" maxQ="224.0"/>
                <iidm:voltageRegulation mode="VOLTAGE" regulating="true"/>
            </iidm:generator>
            <iidm:load id="LOAD-23" loadType="UNDEFINED" p0="21.0" q0="7.0" bus="BUS-23" connectableBus="BUS-23"/>
        </iidm:voltageLevel>
        <iidm:twoWindingsTransformer id="TWT-24-23" r="0.0" x="6.4E-4" ratedU1="0.943" ratedU2="1.0" voltageLevelId1="VL-23" bus1="BUS-24" connectableBus1="BUS-24" voltageLevelId2="VL-23" bus2="BUS-23" connectableBus2="BUS-23"/>
        <iidm:twoWindingsTransformer id="TWT-7023-23" r="0.0" x="2.3E-4" ratedU1="1.0" ratedU2="1.0" voltageLevelId1="VL-23" bus1="BUS-7023" connectableBus1="BUS-7023" voltageLevelId2="VL-23" bus2="BUS-23" connectableBus2="BUS-23"/>
        <iidm:twoWindingsTransformer id="TWT-7024-24" r="0.0" x="2.89E-4" ratedU1="1.0" ratedU2="1.0" voltageLevelId1="VL-23" bus1="BUS-7024" connectableBus1="BUS-7024" voltageLevelId2="VL-23" bus2="BUS-24" connectableBus2="BUS-24"/>
    </iidm:substation>
    <iidm:substation id="SUB-25">
        <iidm:voltageLevel id="VL-25" nominalV="1.0" lowVoltageLimit="0.94" highVoltageLimit="1.06" topologyKind="BUS_BREAKER">
            <iidm:busBreakerTopology>
                <iidm:bus id="BUS-25" v="1.0234" angle="1.44"/>
            </iidm:busBreakerTopology>
            <iidm:load id="LOAD-25" loadType="UNDEFINED" p0="45.0" q0="12.0" bus="BUS-25" connectableBus="BUS-25"/>
        </iidm:voltageLevel>
    </iidm:substation>
    <iidm:substation id="SUB-26">
        <iidm:voltageLevel id="VL-26" nominalV="1.0" lowVoltageLimit="0.94" highVoltageLimit="1.06" topologyKind="BUS_BREAKER">
            <iidm:busBreakerTopology>
                <iidm:bus id="BUS-26" v="0.9986" angle="-1.73"/>
            </iidm:busBreakerTopology>
            <iidm:load id="LOAD-26" loadType="UNDEFINED" p0="28.0" q0="9.0" bus="BUS-26" connectableBus="BUS-26"/>
        </iidm:voltageLevel>
    </iidm:substation>
    <iidm:substation id="SUB-27">
        <iidm:voltageLevel id="VL-27" nominalV="1.0" lowVoltageLimit="0.94" highVoltageLimit="1.06" topologyKind="BUS_BREAKER">
            <iidm:busBreakerTopology>
                <iidm:bus id="BUS-27" v="0.975" angle="-4.9"/>
            </iidm:busBreakerTopology>
            <iidm:load id="LOAD-27" loadType="UNDEFINED" p0="69.0" q0="13.0" bus="BUS-27" connectableBus="BUS-27"/>
        </iidm:voltageLevel>
    </iidm:substation>
    <iidm:substation id="SUB-33">
        <iidm:voltageLevel id="VL-33" nominalV="1.0" lowVoltageLimit="0.94" highVoltageLimit="1.06" topologyKind="BUS_BREAKER">
            <iidm:busBreakerTopology>
                <iidm:bus id="BUS-33" v="1.0244" angle="-12.02"/>
            </iidm:busBreakerTopology>
            <iidm:load id="LOAD-33" loadType="UNDEFINED" p0="55.0" q0="6.0" bus="BUS-33" connectableBus="BUS-33"/>
        </iidm:voltageLevel>
    </iidm:substation>
    <iidm:substation id="SUB-34">
        <iidm:voltageLevel id="VL-34" nominalV="1.0" lowVoltageLimit="0.94" highVoltageLimit="1.06" topologyKind="BUS_BREAKER">
            <iidm:busBreakerTopology>
                <iidm:bus id="BUS-34" v="1.0414" angle="-7.94"/>
            </iidm:busBreakerTopology>
        </iidm:voltageLevel>
    </iidm:substation>
    <iidm:substation id="SUB-35">
        <iidm:voltageLevel id="VL-35" nominalV="1.0" lowVoltageLimit="0.94" highVoltageLimit="1.06" topologyKind="BUS_BREAKER">
            <iidm:busBreakerTopology>
                <iidm:bus id="BUS-35" v="0.9757" angle="-25.72"/>
                <iidm:bus id="BUS-36" v="1.0011" angle="-22.59"/>
            </iidm:busBreakerTopology>
        </iidm:voltageLevel>
        <iidm:twoWindingsTransformer id="TWT-36-35" r="0.0" x="4.7E-4" ratedU1="1.01" ratedU2="1.0" voltageLevelId1="VL-35" bus1="BUS-36" connectableBus1="BUS-36" voltageLevelId2="VL-35" bus2="BUS-35" connectableBus2="BUS-35"/>
    </iidm:substation>
    <iidm:substation id="SUB-37">
        <iidm:voltageLevel id="VL-37" nominalV="1.0" lowVoltageLimit="0.94" highVoltageLimit="1.06" topologyKind="BUS_BREAKER">
            <iidm:busBreakerTopology>
                <iidm:bus id="BUS-37" v="1.0201" angle="-11.23"/>
                <iidm:bus id="BUS-9001" v="1.0117" angle="-11.25"/>
                <iidm:bus id="BUS-9006" v="1.0029" angle="-17.42"/>
                <iidm:bus id="BUS-9012" v="1.0023" angle="-17.27"/>
            </iidm:busBreakerTopology>
            <iidm:load id="LOAD-37" loadType="UNDEFINED" p0="85.0" q0="32.0" bus="BUS-37" connectableBus="BUS-37"/>
        </iidm:voltageLevel>
        <iidm:twoWindingsTransformer id="TWT-37-9001" r="6.000000000000001E-7" x="4.6E-6" ratedU1="1.0082" ratedU2="1.0" voltageLevelId1="VL-37" bus1="BUS-37" connectableBus1="BUS-37" voltageLevelId2="VL-37" bus2="BUS-9001" connectableBus2="BUS-9001"/>
        <iidm:twoWindingsTransformer id="TWT-9001-9006" r="2.439E-4" x="0.0043682" ratedU1="0.9668" ratedU2="1.0" voltageLevelId1="VL-37" bus1="BUS-9001" connectableBus1="BUS-9001" voltageLevelId2="VL-37" bus2="BUS-9006" connectableBus2="BUS-9006"/>
        <iidm:twoWindingsTransformer id="TWT-9001-9012" r="3.624E-4" x="0.0064898" ratedU1="0.9796" ratedU2="1.0" voltageLevelId1="VL-37" bus1="BUS-9001" connectableBus1="BUS-9001" voltageLevelId2="VL-37" bus2="BUS-9012" connectableBus2="BUS-9012"/>
    </iidm:substation>
    <iidm:substation id="SUB-38">
        <iidm:voltageLevel id="VL-38" nominalV="1.0" lowVoltageLimit="0.94" highVoltageLimit="1.06" topologyKind="BUS_BREAKER">
            <iidm:busBreakerTopology>
                <iidm:bus id="BUS-38" v="1.0202" angle="-12.56"/>
            </iidm:busBreakerTopology>
            <iidm:load id="LOAD-38" loadType="UNDEFINED" p0="155.0" q0="18.0" bus="BUS-38" connectableBus="BUS-38"/>
        </iidm:voltageLevel>
    </iidm:substation>
    <iidm:substation id="SUB-39">
        <iidm:voltageLevel id="VL-39" nominalV="1.0" lowVoltageLimit="0.94" highVoltageLimit="1.06" topologyKind="BUS_BREAKER">
            <iidm:busBreakerTopology>
                <iidm:bus id="BUS-39" v="1.0535" angle="-5.81"/>
                <iidm:bus id="BUS-7039" v="1.05" angle="2.11"/>
            </iidm:busBreakerTopology>
            <iidm:generator id="GEN-7039" energySource="OTHER" minP="0.0" maxP="600.0" ratedS="100.0" targetP="500.0" localTargetV="1.05" localTargetQ="0.0" bus="BUS-7039" connectableBus="BUS-7039">
                <iidm:minMaxReactiveLimits minQ="-200.0" maxQ="200.0"/>
                <iidm:voltageRegulation mode="VOLTAGE" regulating="true"/>
            </iidm:generator>
        </iidm:voltageLevel>
        <iidm:twoWindingsTransformer id="TWT-7039-39" r="0.0" x="3.159E-4" ratedU1="0.965" ratedU2="1.0" voltageLevelId1="VL-39" bus1="BUS-7039" connectableBus1="BUS-7039" voltageLevelId2="VL-39" bus2="BUS-39" connectableBus2="BUS-39"/>
    </iidm:substation>
    <iidm:substation id="SUB-40">
        <iidm:voltageLevel id="VL-40" nominalV="1.0" lowVoltageLimit="0.94" highVoltageLimit="1.06" topologyKind="BUS_BREAKER">
            <iidm:busBreakerTopology>
                <iidm:bus id="BUS-40" v="1.0216" angle="-12.78"/>
            </iidm:busBreakerTopology>
            <iidm:load id="LOAD-40" loadType="UNDEFINED" p0="46.0" q0="-21.0" bus="BUS-40" connectableBus="BUS-40"/>
        </iidm:voltageLevel>
    </iidm:substation>
    <iidm:substation id="SUB-41">
        <iidm:voltageLevel id="VL-41" nominalV="1.0" lowVoltageLimit="0.94" highVoltageLimit="1.06" topologyKind="BUS_BREAKER">
            <iidm:busBreakerTopology>
                <iidm:bus id="BUS-41" v="1.0292" angle="-10.45"/>
            </iidm:busBreakerTopology>
            <iidm:load id="LOAD-41" loadType="UNDEFINED" p0="86.0" q0="0.0" bus="BUS-41" connectableBus="BUS-41"/>
        </iidm:voltageLevel>
    </iidm:substation>
    <iidm:substation id="SUB-42">
        <iidm:voltageLevel id="VL-42" nominalV="1.0" lowVoltageLimit="0.94" highVoltageLimit="1.06" topologyKind="BUS_BREAKER">
            <iidm:busBreakerTopology>
                <iidm:bus id="BUS-42" v="1.0448" angle="-7.44"/>
            </iidm:busBreakerTopology>
        </iidm:voltageLevel>
    </iidm:substation>
    <iidm:substation id="SUB-43">
        <iidm:voltageLevel id="VL-43" nominalV="1.0" lowVoltageLimit="0.94" highVoltageLimit="1.06" topologyKind="BUS_BREAKER">
            <iidm:busBreakerTopology>
                <iidm:bus id="BUS-43" v="1.0006" angle="-16.79"/>
            </iidm:busBreakerTopology>
            <iidm:load id="LOAD-43" loadType="UNDEFINED" p0="39.0" q0="9.0" bus="BUS-43" connectableBus="BUS-43"/>
        </iidm:voltageLevel>
    </iidm:substation>
    <iidm:substation id="SUB-44">
        <iidm:voltageLevel id="VL-44" nominalV="1.0" lowVoltageLimit="0.94" highVoltageLimit="1.06" topologyKind="BUS_BREAKER">
            <iidm:busBreakerTopology>
                <iidm:bus id="BUS-44" v="1.0086" angle="-17.47"/>
                <iidm:bus id="BUS-45" v="1.0215" angle="-14.74"/>
                <iidm:bus id="BUS-46" v="1.0344" angle="-11.75"/>
                <iidm:bus id="BUS-7044" v="1.0145" angle="-13.92"/>
            </iidm:busBreakerTopology>
            <iidm:generator id="GEN-7044" energySource="OTHER" minP="0.0" maxP="137.0" ratedS="100.0" targetP="37.0" localTargetV="1.0145" localTargetQ="0.0" bus="BUS-7044" connectableBus="BUS-7044">
                <iidm:minMaxReactiveLimits minQ="0.0" maxQ="42.0"/>
                <iidm:voltageRegulation mode="VOLTAGE" regulating="true"/>
            </iidm:generator>
            <iidm:load id="LOAD-44" loadType="UNDEFINED" p0="195.0" q0="29.0" bus="BUS-44" connectableBus="BUS-44"/>
        </iidm:voltageLevel>
        <iidm:twoWindingsTransformer id="TWT-45-44" r="0.0" x="2.0E-4" ratedU1="1.008" ratedU2="1.0" voltageLevelId1="VL-44" bus1="BUS-45" connectableBus1="BUS-45" voltageLevelId2="VL-44" bus2="BUS-44" connectableBus2="BUS-44"/>
        <iidm:twoWindingsTransformer id="TWT-7044-44" r="0.0" x="0.0018181" ratedU1="0.942" ratedU2="1.0" voltageLevelId1="VL-44" bus1="BUS-7044" connectableBus1="BUS-7044" voltageLevelId2="VL-44" bus2="BUS-44" connectableBus2="BUS-44"/>
        <iidm:twoWindingsTransformer id="TWT-45-46" r="0.0" x="2.1E-4" ratedU1="1.0" ratedU2="1.0" voltageLevelId1="VL-44" bus1="BUS-45" connectableBus1="BUS-45" voltageLevelId2="VL-44" bus2="BUS-46" connectableBus2="BUS-46"/>
    </iidm:substation>
    <iidm:substation id="SUB-47">
        <iidm:voltageLevel id="VL-47" nominalV="1.0" lowVoltageLimit="0.94" highVoltageLimit="1.06" topologyKind="BUS_BREAKER">
            <iidm:busBreakerTopology>
                <iidm:bus id="BUS-47" v="0.9777" angle="-23.17"/>
            </iidm:busBreakerTopology>
            <iidm:load id="LOAD-47" loadType="UNDEFINED" p0="58.0" q0="11.8" bus="BUS-47" connectableBus="BUS-47"/>
        </iidm:voltageLevel>
    </iidm:substation>
    <iidm:substation id="SUB-48">
        <iidm:voltageLevel id="VL-48" nominalV="1.0" lowVoltageLimit="0.94" highVoltageLimit="1.06" topologyKind="BUS_BREAKER">
            <iidm:busBreakerTopology>
                <iidm:bus id="BUS-48" v="1.0019" angle="-16.09"/>
            </iidm:busBreakerTopology>
            <iidm:load id="LOAD-48" loadType="UNDEFINED" p0="41.0" q0="19.0" bus="BUS-48" connectableBus="BUS-48"/>
        </iidm:voltageLevel>
    </iidm:substation>
    <iidm:substation id="SUB-49">
        <iidm:voltageLevel id="VL-49" nominalV="1.0" lowVoltageLimit="0.94" highVoltageLimit="1.06" topologyKind="BUS_BREAKER">
            <iidm:busBreakerTopology>
                <iidm:bus id="BUS-49" v="1.0475" angle="-2.95"/>
                <iidm:bus id="BUS-7049" v="1.0507" angle="0.0"/>
            </iidm:busBreakerTopology>
            <iidm:generator id="GEN-7049" energySource="OTHER" minP="0.0" maxP="2399.005" ratedS="100.0" targetP="0.0" localTargetV="1.0507" localTargetQ="0.0" bus="BUS-7049" connectableBus="BUS-7049">
                <iidm:minMaxReactiveLimits minQ="0.0" maxQ="10.0"/>
                <iidm:voltageRegulation mode="VOLTAGE" regulating="true"/>
            </iidm:generator>
            <iidm:load id="LOAD-49" loadType="UNDEFINED" p0="92.0" q0="26.0" bus="BUS-49" connectableBus="BUS-49"/>
        </iidm:voltageLevel>
        <iidm:twoWindingsTransformer id="TWT-7049-49" r="0.0" x="1.24E-4" ratedU1="1.0" ratedU2="1.0" voltageLevelId1="VL-49" bus1="BUS-7049" connectableBus1="BUS-7049" voltageLevelId2="VL-49" bus2="BUS-49" connectableBus2="BUS-49"/>
    </iidm:substation>
    <iidm:substation id="SUB-51">
        <iidm:voltageLevel id="VL-51" nominalV="1.0" lowVoltageLimit="0.94" highVoltageLimit="1.06" topologyKind="BUS_BREAKER">
            <iidm:busBreakerTopology>
                <iidm:bus id="BUS-51" v="1.0253" angle="-8.15"/>
            </iidm:busBreakerTopology>
            <iidm:load id="LOAD-51" loadType="UNDEFINED" p0="-5.0" q0="5.0" bus="BUS-51" connectableBus="BUS-51"/>
        </iidm:voltageLevel>
    </iidm:substation>
    <iidm:substation id="SUB-52">
        <iidm:voltageLevel id="VL-52" nominalV="1.0" lowVoltageLimit="0.94" highVoltageLimit="1.06" topologyKind="BUS_BREAKER">
            <iidm:busBreakerTopology>
                <iidm:bus id="BUS-52" v="0.9979" angle="-11.86"/>
            </iidm:busBreakerTopology>
            <iidm:load id="LOAD-52" loadType="UNDEFINED" p0="61.0" q0="28.0" bus="BUS-52" connectableBus="BUS-52"/>
        </iidm:voltageLevel>
    </iidm:substation>
    <iidm:substation id="SUB-53">
        <iidm:voltageLevel id="VL-53" nominalV="1.0" lowVoltageLimit="0.94" highVoltageLimit="1.06" topologyKind="BUS_BREAKER">
            <iidm:busBreakerTopology>
                <iidm:bus id="BUS-53" v="0.9959" angle="-17.6"/>
            </iidm:busBreakerTopology>
            <iidm:load id="LOAD-53" loadType="UNDEFINED" p0="69.0" q0="3.0" bus="BUS-53" connectableBus="BUS-53"/>
        </iidm:voltageLevel>
    </iidm:substation>
    <iidm:substation id="SUB-54">
        <iidm:voltageLevel id="VL-54" nominalV="1.0" lowVoltageLimit="0.94" highVoltageLimit="1.06" topologyKind="BUS_BREAKER">
            <iidm:busBreakerTopology>
                <iidm:bus id="BUS-54" v="1.005" angle="-16.25"/>
            </iidm:busBreakerTopology>
            <iidm:load id="LOAD-54" loadType="UNDEFINED" p0="10.0" q0="1.0" bus="BUS-54" connectableBus="BUS-54"/>
        </iidm:voltageLevel>
    </iidm:substation>
    <iidm:substation id="SUB-55">
        <iidm:voltageLevel id="VL-55" nominalV="1.0" lowVoltageLimit="0.94" highVoltageLimit="1.06" topologyKind="BUS_BREAKER">
            <iidm:busBreakerTopology>
                <iidm:bus id="BUS-55" v="1.015" angle="-12.21"/>
                <iidm:bus id="BUS-7055" v="0.9967" angle="-7.5"/>
            </iidm:busBreakerTopology>
            <iidm:generator id="GEN-7055" energySource="OTHER" minP="0.0" maxP="145.0" ratedS="100.0" targetP="45.0" localTargetV="0.9967" localTargetQ="0.0" bus="BUS-7055" connectableBus="BUS-7055">
                <iidm:minMaxReactiveLimits minQ="0.0" maxQ="25.0"/>
                <iidm:voltageRegulation mode="VOLTAGE" regulating="true"/>
            </iidm:generator>
            <iidm:load id="LOAD-55" loadType="UNDEFINED" p0="22.0" q0="10.0" bus="BUS-55" connectableBus="BUS-55"/>
        </iidm:voltageLevel>
        <iidm:twoWindingsTransformer id="TWT-7055-55" r="0.0" x="0.0019607" ratedU1="0.942" ratedU2="1.0" voltageLevelId1="VL-55" bus1="BUS-7055" connectableBus1="BUS-7055" voltageLevelId2="VL-55" bus2="BUS-55" connectableBus2="BUS-55"/>
    </iidm:substation>
    <iidm:substation id="SUB-57">
        <iidm:voltageLevel id="VL-57" nominalV="1.0" lowVoltageLimit="0.94" highVoltageLimit="1.06" topologyKind="BUS_BREAKER">
            <iidm:busBreakerTopology>
                <iidm:bus id="BUS-57" v="1.0335" angle="-8.0"/>
                <iidm:bus id="BUS-7057" v="1.0212" angle="-3.44"/>
            </iidm:busBreakerTopology>
            <iidm:generator id="GEN-7057" energySource="OTHER" minP="0.0" maxP="265.0" ratedS="100.0" targetP="165.0" localTargetV="1.0212" localTargetQ="0.0" bus="BUS-7057" connectableBus="BUS-7057">
                <iidm:minMaxReactiveLimits minQ="-90.0" maxQ="90.0"/>
                <iidm:voltageRegulation mode="VOLTAGE" regulating="true"/>
            </iidm:generator>
            <iidm:load id="LOAD-57" loadType="UNDEFINED" p0="98.0" q0="20.0" bus="BUS-57" connectableBus="BUS-57"/>
        </iidm:voltageLevel>
        <iidm:twoWindingsTransformer id="TWT-7057-57" r="0.0" x="5.346999999999999E-4" ratedU1="0.95" ratedU2="1.0" voltageLevelId1="VL-57" bus1="BUS-7057" connectableBus1="BUS-7057" voltageLevelId2="VL-57" bus2="BUS-57" connectableBus2="BUS-57"/>
    </iidm:substation>
    <iidm:substation id="SUB-58">
        <iidm:voltageLevel id="VL-58" nominalV="1.0" lowVoltageLimit="0.94" highVoltageLimit="1.06" topologyKind="BUS_BREAKER">
            <iidm:busBreakerTopology>
                <iidm:bus id="BUS-58" v="0.9918" angle="-5.99"/>
            </iidm:busBreakerTopology>
            <iidm:load id="LOAD-58" loadType="UNDEFINED" p0="14.0" q0="1.0" bus="BUS-58" connectableBus="BUS-58"/>
        </iidm:voltageLevel>
    </iidm:substation>
    <iidm:substation id="SUB-59">
        <iidm:voltageLevel id="VL-59" nominalV="1.0" lowVoltageLimit="0.94" highVoltageLimit="1.06" topologyKind="BUS_BREAKER">
            <iidm:busBreakerTopology>
                <iidm:bus id="BUS-59" v="0.9789" angle="-5.29"/>
            </iidm:busBreakerTopology>
            <iidm:load id="LOAD-59" loadType="UNDEFINED" p0="218.0" q0="106.0" bus="BUS-59" connectableBus="BUS-59"/>
        </iidm:voltageLevel>
    </iidm:substation>
    <iidm:substation id="SUB-60">
        <iidm:voltageLevel id="VL-60" nominalV="1.0" lowVoltageLimit="0.94" highVoltageLimit="1.06" topologyKind="BUS_BREAKER">
            <iidm:busBreakerTopology>
                <iidm:bus id="BUS-60" v="1.0246" angle="-9.56"/>
            </iidm:busBreakerTopology>
        </iidm:voltageLevel>
    </iidm:substation>
    <iidm:substation id="SUB-61">
        <iidm:voltageLevel id="VL-61" nominalV="1.0" lowVoltageLimit="0.94" highVoltageLimit="1.06" topologyKind="BUS_BREAKER">
            <iidm:busBreakerTopology>
                <iidm:bus id="BUS-61" v="0.9906" angle="-3.47"/>
                <iidm:bus id="BUS-62" v="1.016" angle="-1.1"/>
                <iidm:bus id="BUS-7061" v="1.0145" angle="1.97"/>
                <iidm:bus id="BUS-7062" v="1.0017" angle="5.8"/>
            </iidm:busBreakerTopology>
            <iidm:generator id="GEN-7061" energySource="OTHER" minP="0.0" maxP="500.0" ratedS="100.0" targetP="400.0" localTargetV="1.0145" localTargetQ="0.0" bus="BUS-7061" connectableBus="BUS-7061">
                <iidm:minMaxReactiveLimits minQ="-150.0" maxQ="150.0"/>
                <iidm:voltageRegulation mode="VOLTAGE" regulating="true"/>
            </iidm:generator>
            <iidm:generator id="GEN-7062" energySource="OTHER" minP="0.0" maxP="500.0" ratedS="100.0" targetP="400.0" localTargetV="1.0017" localTargetQ="0.0" bus="BUS-7062" connectableBus="BUS-7062">
                <iidm:minMaxReactiveLimits minQ="0.0" maxQ="150.0"/>
                <iidm:voltageRegulation mode="VOLTAGE" regulating="true"/>
            </iidm:generator>
            <iidm:load id="LOAD-61" loadType="UNDEFINED" p0="227.0" q0="110.0" bus="BUS-61" connectableBus="BUS-61"/>
        </iidm:voltageLevel>
        <iidm:twoWindingsTransformer id="TWT-62-61" r="0.0" x="5.9E-4" ratedU1="0.975" ratedU2="1.0" voltageLevelId1="VL-61" bus1="BUS-62" connectableBus1="BUS-62" voltageLevelId2="VL-61" bus2="BUS-61" connectableBus2="BUS-61"/>
        <iidm:twoWindingsTransformer id="TWT-7061-61" r="0.0" x="2.38E-4" ratedU1="1.0" ratedU2="1.0" voltageLevelId1="VL-61" bus1="BUS-7061" connectableBus1="BUS-7061" voltageLevelId2="VL-61" bus2="BUS-61" connectableBus2="BUS-61"/>
        <iidm:twoWindingsTransformer id="TWT-7062-62" r="0.0" x="3.214E-4" ratedU1="0.95" ratedU2="1.0" voltageLevelId1="VL-61" bus1="BUS-7062" connectableBus1="BUS-7062" voltageLevelId2="VL-61" bus2="BUS-62" connectableBus2="BUS-62"/>
    </iidm:substation>
    <iidm:substation id="SUB-63">
        <iidm:voltageLevel id="VL-63" nominalV="1.0" lowVoltageLimit="0.94" highVoltageLimit="1.06" topologyKind="BUS_BREAKER">
            <iidm:busBreakerTopology>
                <iidm:bus id="BUS-63" v="0.9583" angle="-17.62"/>
                <iidm:bus id="BUS-64" v="0.948" angle="-12.97"/>
            </iidm:busBreakerTopology>
            <iidm:generator id="GEN-63" energySource="OTHER" minP="0.0" maxP="100.0" ratedS="100.0" targetP="0.0" localTargetV="0.9583" localTargetQ="0.0" bus="BUS-63" connectableBus="BUS-63">
                <iidm:minMaxReactiveLimits minQ="-25.0" maxQ="25.0"/>
                <iidm:voltageRegulation mode="VOLTAGE" regulating="true"/>
            </iidm:generator>
            <iidm:load id="LOAD-63" loadType="UNDEFINED" p0="70.0" q0="30.0" bus="BUS-63" connectableBus="BUS-63"/>
        </iidm:voltageLevel>
        <iidm:twoWindingsTransformer id="TWT-63-64" r="0.0" x="3.8E-4" ratedU1="1.017" ratedU2="1.0" voltageLevelId1="VL-63" bus1="BUS-63" connectableBus1="BUS-63" voltageLevelId2="VL-63" bus2="BUS-64" connectableBus2="BUS-64"/>
    </iidm:substation>
    <iidm:substation id="SUB-69">
        <iidm:voltageLevel id="VL-69" nominalV="1.0" lowVoltageLimit="0.94" highVoltageLimit="1.06" topologyKind="BUS_BREAKER">
            <iidm:busBreakerTopology>
                <iidm:bus id="BUS-69" v="0.963" angle="-25.66"/>
                <iidm:bus id="BUS-201" v="0.9692" angle="-27.49"/>
            </iidm:busBreakerTopology>
            <iidm:load id="LOAD-201" loadType="UNDEFINED" p0="41.0" q0="14.0" bus="BUS-201" connectableBus="BUS-201"/>
        </iidm:voltageLevel>
        <iidm:twoWindingsTransformer id="TWT-201-69" r="0.0" x="9.8E-4" ratedU1="1.03" ratedU2="1.0" voltageLevelId1="VL-69" bus1="BUS-201" connectableBus1="BUS-201" voltageLevelId2="VL-69" bus2="BUS-69" connectableBus2="BUS-69"/>
    </iidm:substation>
    <iidm:substation id="SUB-70">
        <iidm:voltageLevel id="VL-70" nominalV="1.0" lowVoltageLimit="0.94" highVoltageLimit="1.06" topologyKind="BUS_BREAKER">
            <iidm:busBreakerTopology>
                <iidm:bus id="BUS-70" v="0.9513" angle="-35.16"/>
            </iidm:busBreakerTopology>
            <iidm:load id="LOAD-70" loadType="UNDEFINED" p0="56.0" q0="20.0" bus="BUS-70" connectableBus="BUS-70"/>
        </iidm:voltageLevel>
    </iidm:substation>
    <iidm:substation id="SUB-71">
        <iidm:voltageLevel id="VL-71" nominalV="1.0" lowVoltageLimit="0.94" highVoltageLimit="1.06" topologyKind="BUS_BREAKER">
            <iidm:busBreakerTopology>
                <iidm:bus id="BUS-71" v="0.9793" angle="-29.88"/>
                <iidm:bus id="BUS-7071" v="0.9893" angle="-25.35"/>
            </iidm:busBreakerTopology>
            <iidm:generator id="GEN-7071" energySource="OTHER" minP="0.0" maxP="216.0" ratedS="100.0" targetP="116.0" localTargetV="0.9893" localTargetQ="0.0" bus="BUS-7071" connectableBus="BUS-7071">
                <iidm:minMaxReactiveLimits minQ="0.0" maxQ="87.0"/>
                <iidm:voltageRegulation mode="VOLTAGE" regulating="true"/>
            </iidm:generator>
            <iidm:load id="LOAD-71" loadType="UNDEFINED" p0="116.0" q0="38.0" bus="BUS-71" connectableBus="BUS-71"/>
        </iidm:voltageLevel>
        <iidm:twoWindingsTransformer id="TWT-7071-71" r="0.0" x="6.896E-4" ratedU1="0.9565" ratedU2="1.0" voltageLevelId1="VL-71" bus1="BUS-7071" connectableBus1="BUS-7071" voltageLevelId2="VL-71" bus2="BUS-71" connectableBus2="BUS-71"/>
    </iidm:substation>
    <iidm:substation id="SUB-72">
        <iidm:voltageLevel id="VL-72" nominalV="1.0" lowVoltageLimit="0.94" highVoltageLimit="1.06" topologyKind="BUS_BREAKER">
            <iidm:busBreakerTopology>
                <iidm:bus id="BUS-72" v="0.9696" angle="-27.48"/>
            </iidm:busBreakerTopology>
            <iidm:load id="LOAD-72" loadType="UNDEFINED" p0="57.0" q0="19.0" bus="BUS-72" connectableBus="BUS-72"/>
        </iidm:voltageLevel>
    </iidm:substation>
    <iidm:substation id="SUB-73">
        <iidm:voltageLevel id="VL-73" nominalV="1.0" lowVoltageLimit="0.94" highVoltageLimit="1.06" topologyKind="BUS_BREAKER">
            <iidm:busBreakerTopology>
                <iidm:bus id="BUS-73" v="0.9775" angle="-25.77"/>
                <iidm:bus id="BUS-74" v="0.9964" angle="-22.0"/>
            </iidm:busBreakerTopology>
            <iidm:load id="LOAD-73" loadType="UNDEFINED" p0="224.0" q0="71.0" bus="BUS-73" connectableBus="BUS-73"/>
        </iidm:voltageLevel>
        <iidm:twoWindingsTransformer id="TWT-73-74" r="0.0" x="2.4400000000000002E-4" ratedU1="1.0" ratedU2="1.0" voltageLevelId1="VL-73" bus1="BUS-73" connectableBus1="BUS-73" voltageLevelId2="VL-73" bus2="BUS-74" connectableBus2="BUS-74"/>
    </iidm:substation>
    <iidm:substation id="SUB-76">
        <iidm:voltageLevel id="VL-76" nominalV="1.0" lowVoltageLimit="0.94" highVoltageLimit="1.06" topologyKind="BUS_BREAKER">
            <iidm:busBreakerTopology>
                <iidm:bus id="BUS-76" v="0.9632" angle="-26.54"/>
            </iidm:busBreakerTopology>
            <iidm:generator id="GEN-76" energySource="OTHER" minP="0.0" maxP="100.0" ratedS="100.0" targetP="0.0" localTargetV="0.9632" localTargetQ="0.0" bus="BUS-76" connectableBus="BUS-76">
                <iidm:minMaxReactiveLimits minQ="12.0" maxQ="35.0"/>
                <iidm:voltageRegulation mode="VOLTAGE" regulating="true"/>
            </iidm:generator>
            <iidm:load id="LOAD-76" loadType="UNDEFINED" p0="208.0" q0="107.0" bus="BUS-76" connectableBus="BUS-76"/>
        </iidm:voltageLevel>
    </iidm:substation>
    <iidm:substation id="SUB-77">
        <iidm:voltageLevel id="VL-77" nominalV="1.0" lowVoltageLimit="0.94" highVoltageLimit="1.06" topologyKind="BUS_BREAKER">
            <iidm:busBreakerTopology>
                <iidm:bus id="BUS-77" v="0.9837" angle="-24.94"/>
            </iidm:busBreakerTopology>
            <iidm:load id="LOAD-77" loadType="UNDEFINED" p0="74.0" q0="28.0" bus="BUS-77" connectableBus="BUS-77"/>
        </iidm:voltageLevel>
    </iidm:substation>
    <iidm:substation id="SUB-78">
        <iidm:voltageLevel id="VL-78" nominalV="1.0" lowVoltageLimit="0.94" highVoltageLimit="1.06" topologyKind="BUS_BREAKER">
            <iidm:busBreakerTopology>
                <iidm:bus id="BUS-78" v="0.99" angle="-24.05"/>
            </iidm:busBreakerTopology>
        </iidm:voltageLevel>
    </iidm:substation>
    <iidm:substation id="SUB-79">
        <iidm:voltageLevel id="VL-79" nominalV="1.0" lowVoltageLimit="0.94" highVoltageLimit="1.06" topologyKind="BUS_BREAKER">
            <iidm:busBreakerTopology>
                <iidm:bus id="BUS-79" v="0.982" angle="-24.97"/>
            </iidm:busBreakerTopology>
            <iidm:load id="LOAD-79" loadType="UNDEFINED" p0="48.0" q0="14.0" bus="BUS-79" connectableBus="BUS-79"/>
        </iidm:voltageLevel>
    </iidm:substation>
    <iidm:substation id="SUB-80">
        <iidm:voltageLevel id="VL-80" nominalV="1.0" lowVoltageLimit="0.94" highVoltageLimit="1.06" topologyKind="BUS_BREAKER">
            <iidm:busBreakerTopology>
                <iidm:bus id="BUS-80" v="0.9872" angle="-24.97"/>
            </iidm:busBreakerTopology>
            <iidm:load id="LOAD-80" loadType="UNDEFINED" p0="28.0" q0="7.0" bus="BUS-80" connectableBus="BUS-80"/>
        </iidm:voltageLevel>
    </iidm:substation>
    <iidm:substation id="SUB-81">
        <iidm:voltageLevel id="VL-81" nominalV="1.0" lowVoltageLimit="0.94" highVoltageLimit="1.06" topologyKind="BUS_BREAKER">
            <iidm:busBreakerTopology>
                <iidm:bus id="BUS-81" v="1.034" angle="-18.89"/>
                <iidm:bus id="BUS-88" v="1.0151" angle="-20.96"/>
            </iidm:busBreakerTopology>
        </iidm:voltageLevel>
        <iidm:twoWindingsTransformer id="TWT-81-88" r="0.0" x="2.0E-4" ratedU1="1.0" ratedU2="1.0" voltageLevelId1="VL-81" bus1="BUS-81" connectableBus1="BUS-81" voltageLevelId2="VL-81" bus2="BUS-88" connectableBus2="BUS-88"/>
    </iidm:substation>
    <iidm:substation id="SUB-84">
        <iidm:voltageLevel id="VL-84" nominalV="1.0" lowVoltageLimit="0.94" highVoltageLimit="1.06" topologyKind="BUS_BREAKER">
            <iidm:busBreakerTopology>
                <iidm:bus id="BUS-84" v="1.025" angle="-17.16"/>
            </iidm:busBreakerTopology>
            <iidm:generator id="GEN-84" energySource="OTHER" minP="0.0" maxP="475.0" ratedS="100.0" targetP="375.0" localTargetV="1.025" localTargetQ="0.0" bus="BUS-84" connectableBus="BUS-84">
                <iidm:minMaxReactiveLimits minQ="-240.0" maxQ="240.0"/>
                <iidm:voltageRegulation mode="VOLTAGE" regulating="true"/>
            </iidm:generator>
            <iidm:load id="LOAD-84" loadType="UNDEFINED" p0="37.0" q0="13.0" bus="BUS-84" connectableBus="BUS-84"/>
        </iidm:voltageLevel>
    </iidm:substation>
    <iidm:substation id="SUB-85">
        <iidm:voltageLevel id="VL-85" nominalV="1.0" lowVoltageLimit="0.94" highVoltageLimit="1.06" topologyKind="BUS_BREAKER">
            <iidm:busBreakerTopology>
                <iidm:bus id="BUS-85" v="0.9872" angle="-17.68"/>
                <iidm:bus id="BUS-99" v="0.9894" angle="-20.27"/>
            </iidm:busBreakerTopology>
            <iidm:load id="LOAD-99" loadType="UNDEFINED" p0="83.5" q0="0.0" bus="BUS-99" connectableBus="BUS-99"/>
        </iidm:voltageLevel>
        <iidm:twoWindingsTransformer id="TWT-85-99" r="0.0" x="4.8E-4" ratedU1="1.0" ratedU2="1.0" voltageLevelId1="VL-85" bus1="BUS-85" connectableBus1="BUS-85" voltageLevelId2="VL-85" bus2="BUS-99" connectableBus2="BUS-99"/>
    </iidm:substation>
    <iidm:substation id="SUB-86">
        <iidm:voltageLevel id="VL-86" nominalV="1.0" lowVoltageLimit="0.94" highVoltageLimit="1.06" topologyKind="BUS_BREAKER">
            <iidm:busBreakerTopology>
                <iidm:bus id="BUS-86" v="0.9909" angle="-14.19"/>
                <iidm:bus id="BUS-102" v="1.0008" angle="-15.23"/>
            </iidm:busBreakerTopology>
            <iidm:load id="LOAD-102" loadType="UNDEFINED" p0="77.8" q0="0.0" bus="BUS-102" connectableBus="BUS-102"/>
        </iidm:voltageLevel>
        <iidm:twoWindingsTransformer id="TWT-86-102" r="0.0" x="4.8E-4" ratedU1="1.0" ratedU2="1.0" voltageLevelId1="VL-86" bus1="BUS-86" connectableBus1="BUS-86" voltageLevelId2="VL-86" bus2="BUS-102" connectableBus2="BUS-102"/>
    </iidm:substation>
    <iidm:substation id="SUB-87">
        <iidm:voltageLevel id="VL-87" nominalV="1.0" lowVoltageLimit="0.94" highVoltageLimit="1.06" topologyKind="BUS_BREAKER">
            <iidm:busBreakerTopology>
                <iidm:bus id="BUS-87" v="0.9921" angle="-7.77"/>
                <iidm:bus id="BUS-94" v="0.993" angle="-9.42"/>
            </iidm:busBreakerTopology>
            <iidm:load id="LOAD-94" loadType="UNDEFINED" p0="60.3" q0="0.0" bus="BUS-94" connectableBus="BUS-94"/>
        </iidm:voltageLevel>
        <iidm:twoWindingsTransformer id="TWT-87-94" r="0.0" x="4.6E-4" ratedU1="1.015" ratedU2="1.0" voltageLevelId1="VL-87" bus1="BUS-87" connectableBus1="BUS-87" voltageLevelId2="VL-87" bus2="BUS-94" connectableBus2="BUS-94"/>
    </iidm:substation>
    <iidm:substation id="SUB-89">
        <iidm:voltageLevel id="VL-89" nominalV="1.0" lowVoltageLimit="0.94" highVoltageLimit="1.06" topologyKind="BUS_BREAKER">
            <iidm:busBreakerTopology>
                <iidm:bus id="BUS-89" v="1.0317" angle="-11.13"/>
            </iidm:busBreakerTopology>
            <iidm:load id="LOAD-89" loadType="UNDEFINED" p0="44.2" q0="0.0" bus="BUS-89" connectableBus="BUS-89"/>
        </iidm:voltageLevel>
    </iidm:substation>
    <iidm:substation id="SUB-90">
        <iidm:voltageLevel id="VL-90" nominalV="1.0" lowVoltageLimit="0.94" highVoltageLimit="1.06" topologyKind="BUS_BREAKER">
            <iidm:busBreakerTopology>
                <iidm:bus id="BUS-90" v="1.0272" angle="-11.23"/>
            </iidm:busBreakerTopology>
            <iidm:load id="LOAD-90" loadType="UNDEFINED" p0="66.0" q0="0.0" bus="BUS-90" connectableBus="BUS-90"/>
        </iidm:voltageLevel>
    </iidm:substation>
    <iidm:substation id="SUB-91">
        <iidm:voltageLevel id="VL-91" nominalV="1.0" lowVoltageLimit="0.94" highVoltageLimit="1.06" topologyKind="BUS_BREAKER">
            <iidm:busBreakerTopology>
                <iidm:bus id="BUS-91" v="1.052" angle="-9.4"/>
            </iidm:busBreakerTopology>
            <iidm:generator id="GEN-91" energySource="OTHER" minP="0.0" maxP="255.0" ratedS="100.0" targetP="155.0" localTargetV="1.052" localTargetQ="0.0" bus="BUS-91" connectableBus="BUS-91">
                <iidm:minMaxReactiveLimits minQ="-11.0" maxQ="96.0"/>
                <iidm:voltageRegulation mode="VOLTAGE" regulating="true"/>
            </iidm:generator>
            <iidm:load id="LOAD-91" loadType="UNDEFINED" p0="17.4" q0="0.0" bus="BUS-91" connectableBus="BUS-91"/>
        </iidm:voltageLevel>
    </iidm:substation>
    <iidm:substation id="SUB-92">
        <iidm:voltageLevel id="VL-92" nominalV="1.0" lowVoltageLimit="0.94" highVoltageLimit="1.06" topologyKind="BUS_BREAKER">
            <iidm:busBreakerTopology>
                <iidm:bus id="BUS-92" v="1.052" angle="-6.2"/>
            </iidm:busBreakerTopology>
            <iidm:generator id="GEN-92" energySource="OTHER" minP="0.0" maxP="390.0" ratedS="100.0" targetP="290.0" localTargetV="1.052" localTargetQ="0.0" bus="BUS-92" connectableBus="BUS-92">
                <iidm:minMaxReactiveLimits minQ="-153.0" maxQ="153.0"/>
                <iidm:voltageRegulation mode="VOLTAGE" regulating="true"/>
            </iidm:generator>
            <iidm:load id="LOAD-92" loadType="UNDEFINED" p0="15.8" q0="0.0" bus="BUS-92" connectableBus="BUS-92"/>
        </iidm:voltageLevel>
    </iidm:substation>
    <iidm:substation id="SUB-97">
        <iidm:voltageLevel id="VL-97" nominalV="1.0" lowVoltageLimit="0.94" highVoltageLimit="1.06" topologyKind="BUS_BREAKER">
            <iidm:busBreakerTopology>
                <iidm:bus id="BUS-97" v="1.0183" angle="-13.24"/>
            </iidm:busBreakerTopology>
            <iidm:load id="LOAD-97" loadType="UNDEFINED" p0="39.9" q0="0.0" bus="BUS-97" connectableBus="BUS-97"/>
        </iidm:voltageLevel>
    </iidm:substation>
    <iidm:substation id="SUB-98">
        <iidm:voltageLevel id="VL-98" nominalV="1.0" lowVoltageLimit="0.94" highVoltageLimit="1.06" topologyKind="BUS_BREAKER">
            <iidm:busBreakerTopology>
                <iidm:bus id="BUS-98" v="1.0" angle="-14.6"/>
            </iidm:busBreakerTopology>
            <iidm:generator id="GEN-98" energySource="OTHER" minP="0.0" maxP="168.0" ratedS="100.0" targetP="68.0" localTargetV="1.0" localTargetQ="0.0" bus="BUS-98" connectableBus="BUS-98">
                <iidm:minMaxReactiveLimits minQ="-30.0" maxQ="56.0"/>
                <iidm:voltageRegulation mode="VOLTAGE" regulating="true"/>
            </iidm:generator>
            <iidm:load id="LOAD-98" loadType="UNDEFINED" p0="66.7" q0="0.0" bus="BUS-98" connectableBus="BUS-98"/>
        </iidm:voltageLevel>
    </iidm:substation>
    <iidm:substation id="SUB-100">
        <iidm:voltageLevel id="VL-100" nominalV="1.0" lowVoltageLimit="0.94" highVoltageLimit="1.06" topologyKind="BUS_BREAKER">
            <iidm:busBreakerTopology>
                <iidm:bus id="BUS-100" v="1.006" angle="-14.45"/>
            </iidm:busBreakerTopology>
        </iidm:voltageLevel>
    </iidm:substation>
    <iidm:substation id="SUB-103">
        <iidm:voltageLevel id="VL-103" nominalV="1.0" lowVoltageLimit="0.94" highVoltageLimit="1.06" topologyKind="BUS_BREAKER">
            <iidm:busBreakerTopology>
                <iidm:bus id="BUS-103" v="1.0288" angle="-12.06"/>
            </iidm:busBreakerTopology>
            <iidm:load id="LOAD-103" loadType="UNDEFINED" p0="32.0" q0="0.0" bus="BUS-103" connectableBus="BUS-103"/>
        </iidm:voltageLevel>
    </iidm:substation>
    <iidm:substation id="SUB-104">
        <iidm:voltageLevel id="VL-104" nominalV="1.0" lowVoltageLimit="0.94" highVoltageLimit="1.06" topologyKind="BUS_BREAKER">
            <iidm:busBreakerTopology>
                <iidm:bus id="BUS-104" v="0.9958" angle="-17.33"/>
            </iidm:busBreakerTopology>
            <iidm:load id="LOAD-104" loadType="UNDEFINED" p0="8.6" q0="0.0" bus="BUS-104" connectableBus="BUS-104"/>
        </iidm:voltageLevel>
    </iidm:substation>
    <iidm:substation id="SUB-105">
        <iidm:voltageLevel id="VL-105" nominalV="1.0" lowVoltageLimit="0.94" highVoltageLimit="1.06" topologyKind="BUS_BREAKER">
            <iidm:busBreakerTopology>
                <iidm:bus id="BUS-105" v="1.0223" angle="-12.94"/>
            </iidm:busBreakerTopology>
            <iidm:load id="LOAD-105" loadType="UNDEFINED" p0="49.6" q0="0.0" bus="BUS-105" connectableBus="BUS-105"/>
        </iidm:voltageLevel>
    </iidm:substation>
    <iidm:substation id="SUB-107">
        <iidm:voltageLevel id="VL-107" nominalV="1.0" lowVoltageLimit="0.94" highVoltageLimit="1.06" topologyKind="BUS_BREAKER">
            <iidm:busBreakerTopology>
                <iidm:bus id="BUS-107" v="1.0095" angle="-16.03"/>
            </iidm:busBreakerTopology>
            <iidm:load id="LOAD-107" loadType="UNDEFINED" p0="4.6" q0="0.0" bus="BUS-107" connectableBus="BUS-107"/>
        </iidm:voltageLevel>
    </iidm:substation>
    <iidm:substation id="SUB-108">
        <iidm:voltageLevel id="VL-108" nominalV="1.0" lowVoltageLimit="0.94" highVoltageLimit="1.06" topologyKind="BUS_BREAKER">
            <iidm:busBreakerTopology>
                <iidm:bus id="BUS-108" v="0.99" angle="-20.26"/>
            </iidm:busBreakerTopology>
            <iidm:generator id="GEN-108" energySource="OTHER" minP="0.0" maxP="217.0" ratedS="100.0" targetP="117.0" localTargetV="0.99" localTargetQ="0.0" bus="BUS-108" connectableBus="BUS-108">
                <iidm:minMaxReactiveLimits minQ="-24.0" maxQ="77.0"/>
                <iidm:voltageRegulation mode="VOLTAGE" regulating="true"/>
            </iidm:generator>
            <iidm:load id="LOAD-108" loadType="UNDEFINED" p0="112.1" q0="0.0" bus="BUS-108" connectableBus="BUS-108"/>
        </iidm:voltageLevel>
    </iidm:substation>
    <iidm:substation id="SUB-109">
        <iidm:voltageLevel id="VL-109" nominalV="1.0" lowVoltageLimit="0.94" highVoltageLimit="1.06" topologyKind="BUS_BREAKER">
            <iidm:busBreakerTopology>
                <iidm:bus id="BUS-109" v="0.9749" angle="-26.06"/>
            </iidm:busBreakerTopology>
            <iidm:load id="LOAD-109" loadType="UNDEFINED" p0="30.7" q0="0.0" bus="BUS-109" connectableBus="BUS-109"/>
        </iidm:voltageLevel>
    </iidm:substation>
    <iidm:substation id="SUB-110">
        <iidm:voltageLevel id="VL-110" nominalV="1.0" lowVoltageLimit="0.94" highVoltageLimit="1.06" topologyKind="BUS_BREAKER">
            <iidm:busBreakerTopology>
                <iidm:bus id="BUS-110" v="0.973" angle="-24.72"/>
            </iidm:busBreakerTopology>
            <iidm:load id="LOAD-110" loadType="UNDEFINED" p0="63.0" q0="0.0" bus="BUS-110" connectableBus="BUS-110"/>
        </iidm:voltageLevel>
    </iidm:substation>
    <iidm:substation id="SUB-112">
        <iidm:voltageLevel id="VL-112" nominalV="1.0" lowVoltageLimit="0.94" highVoltageLimit="1.06" topologyKind="BUS_BREAKER">
            <iidm:busBreakerTopology>
                <iidm:bus id="BUS-112" v="0.9725" angle="-28.69"/>
            </iidm:busBreakerTopology>
            <iidm:load id="LOAD-112" loadType="UNDEFINED" p0="19.6" q0="0.0" bus="BUS-112" connectableBus="BUS-112"/>
        </iidm:voltageLevel>
    </iidm:substation>
    <iidm:substation id="SUB-113">
        <iidm:voltageLevel id="VL-113" nominalV="1.0" lowVoltageLimit="0.94" highVoltageLimit="1.06" topologyKind="BUS_BREAKER">
            <iidm:busBreakerTopology>
                <iidm:bus id="BUS-113" v="0.97" angle="-25.38"/>
            </iidm:busBreakerTopology>
            <iidm:load id="LOAD-113" loadType="UNDEFINED" p0="26.2" q0="0.0" bus="BUS-113" connectableBus="BUS-113"/>
        </iidm:voltageLevel>
    </iidm:substation>
    <iidm:substation id="SUB-114">
        <iidm:voltageLevel id="VL-114" nominalV="1.0" lowVoltageLimit="0.94" highVoltageLimit="1.06" topologyKind="BUS_BREAKER">
            <iidm:busBreakerTopology>
                <iidm:bus id="BUS-114" v="0.9747" angle="-28.59"/>
                <iidm:bus id="BUS-207" v="1.0137" angle="-27.44"/>
            </iidm:busBreakerTopology>
            <iidm:load id="LOAD-114" loadType="UNDEFINED" p0="18.2" q0="0.0" bus="BUS-114" connectableBus="BUS-114"/>
            <iidm:load id="LOAD-207" loadType="UNDEFINED" p0="-21.0" q0="-14.2" bus="BUS-207" connectableBus="BUS-207"/>
        </iidm:voltageLevel>
        <iidm:twoWindingsTransformer id="TWT-114-207" r="0.0" x="0.00149" ratedU1="0.967" ratedU2="1.0" voltageLevelId1="VL-114" bus1="BUS-114" connectableBus1="BUS-114" voltageLevelId2="VL-114" bus2="BUS-207" connectableBus2="BUS-207"/>
    </iidm:substation>
    <iidm:substation id="SUB-115">
        <iidm:voltageLevel id="VL-115" nominalV="1.0" lowVoltageLimit="0.94" highVoltageLimit="1.06" topologyKind="BUS_BREAKER">
            <iidm:busBreakerTopology>
                <iidm:bus id="BUS-115" v="0.9603" angle="-13.57"/>
                <iidm:bus id="BUS-121" v="0.9871" angle="-12.64"/>
            </iidm:busBreakerTopology>
            <iidm:load id="LOAD-121" loadType="UNDEFINED" p0="535.0" q0="55.0" bus="BUS-121" connectableBus="BUS-121"/>
        </iidm:voltageLevel>
        <iidm:twoWindingsTransformer id="TWT-121-115" r="0.0" x="2.8000000000000003E-4" ratedU1="1.05" ratedU2="1.0" voltageLevelId1="VL-115" bus1="BUS-121" connectableBus1="BUS-121" voltageLevelId2="VL-115" bus2="BUS-115" connectableBus2="BUS-115"/>
    </iidm:substation>
    <iidm:substation id="SUB-116">
        <iidm:voltageLevel id="VL-116" nominalV="1.0" lowVoltageLimit="0.94" highVoltageLimit="1.06" topologyKind="BUS_BREAKER">
            <iidm:busBreakerTopology>
                <iidm:bus id="BUS-116" v="1.0249" angle="-12.69"/>
                <iidm:bus id="BUS-124" v="1.0233" angle="-13.49"/>
                <iidm:bus id="BUS-160" v="0.9998" angle="-12.55"/>
            </iidm:busBreakerTopology>
            <iidm:generator id="GEN-124" energySource="OTHER" minP="0.0" maxP="340.0" ratedS="100.0" targetP="240.0" localTargetV="1.0233" localTargetQ="0.0" bus="BUS-124" connectableBus="BUS-124">
                <iidm:minMaxReactiveLimits minQ="-60.0" maxQ="120.0"/>
                <iidm:voltageRegulation mode="VOLTAGE" regulating="true"/>
            </iidm:generator>
            <iidm:load id="LOAD-124" loadType="UNDEFINED" p0="276.4" q0="59.3" bus="BUS-124" connectableBus="BUS-124"/>
        </iidm:voltageLevel>
        <iidm:twoWindingsTransformer id="TWT-116-124" r="5.2E-5" x="1.74E-4" ratedU1="1.01" ratedU2="1.0" voltageLevelId1="VL-116" bus1="BUS-116" connectableBus1="BUS-116" voltageLevelId2="VL-116" bus2="BUS-124" connectableBus2="BUS-124"/>
        <iidm:twoWindingsTransformer id="TWT-160-124" r="1.1999999999999999E-5" x="3.9600000000000003E-4" ratedU1="0.975" ratedU2="1.0" voltageLevelId1="VL-116" bus1="BUS-160" connectableBus1="BUS-160" voltageLevelId2="VL-116" bus2="BUS-124" connectableBus2="BUS-124"/>
    </iidm:substation>
    <iidm:substation id="SUB-117">
        <iidm:voltageLevel id="VL-117" nominalV="1.0" lowVoltageLimit="0.94" highVoltageLimit="1.06" topologyKind="BUS_BREAKER">
            <iidm:busBreakerTopology>
                <iidm:bus id="BUS-117" v="0.9348" angle="-4.72"/>
                <iidm:bus id="BUS-159" v="0.9867" angle="-9.82"/>
            </iidm:busBreakerTopology>
            <iidm:load id="LOAD-159" loadType="UNDEFINED" p0="33.0" q0="16.5" bus="BUS-159" connectableBus="BUS-159"/>
            <iidm:shuntCompensator id="SHUNT-117" sectionCount="1" bus="BUS-117" connectableBus="BUS-117">
                <iidm:shuntLinearModel bPerSection="325.0" gPerSection="0.0" maximumSectionCount="1"/>
            </iidm:shuntCompensator>
        </iidm:voltageLevel>
        <iidm:twoWindingsTransformer id="TWT-159-117" r="0.0" x="1.6E-4" ratedU1="1.0506" ratedU2="1.0" voltageLevelId1="VL-117" bus1="BUS-159" connectableBus1="BUS-159" voltageLevelId2="VL-117" bus2="BUS-117" connectableBus2="BUS-117"/>
    </iidm:substation>
    <iidm:substation id="SUB-118">
        <iidm:voltageLevel id="VL-118" nominalV="1.0" lowVoltageLimit="0.94" highVoltageLimit="1.06" topologyKind="BUS_BREAKER">
            <iidm:busBreakerTopology>
                <iidm:bus id="BUS-118" v="0.9298" angle="-4.12"/>
...